/*---------------------------------------------------------------------------*\
  =========                 |
  \\      /  F ield         | OpenFOAM: The Open Source CFD Toolbox
   \\    /   O peration     | Website:  https://openfoam.org
    \\  /    A nd           | Version:  10
     \\/     M anipulation  |
\*---------------------------------------------------------------------------*/
Build  : 10-c4cf895ad8fa
Exec   : surfaceCheck watertight_cube.stl
Date   : Jul 11 2026
Time   : 07:57:07
Host   : "e16561e744f8"
PID    : 518
I/O    : uncollated
Case   : /home/openfoam/Foam-Agent/runs/.harvest-59
nProcs : 1
sigFpe : Enabling floating point exception trapping (FOAM_SIGFPE).
fileModificationChecking : Monitoring run-time modified files using timeStampMaster (fileModificationSkew 10)
allowSystemOperations : Allowing user-supplied system call operations

// * * * * * * * * * * * * * * * * * * * * * * * * * * * * * * * * * * * * * //
Reading surface from "watertight_cube.stl" ...

Statistics:
Triangles    : 12
Vertices     : 8
Bounding Box : (0 0 0) (1 1 1)

Region	Size
------	----
cube	12


Surface has no illegal triangles.

Triangle quality (equilateral=1, collapsed=0):
    0 .. 0.05  : 0
    0.05 .. 0.1  : 0
    0.1 .. 0.15  : 0
    0.15 .. 0.2  : 0
    0.2 .. 0.25  : 0
    0.25 .. 0.3  : 0
    0.3 .. 0.35  : 0
    0.35 .. 0.4  : 0
    0.4 .. 0.45  : 0
    0.45 .. 0.5  : 0
    0.5 .. 0.55  : 0
    0.55 .. 0.6  : 0
    0.6 .. 0.65  : 0
    0.65 .. 0.7  : 0
    0.7 .. 0.75  : 0
    0.75 .. 0.8  : 1
    0.8 .. 0.85  : 0
    0.85 .. 0.9  : 0
    0.9 .. 0.95  : 0
    0.95 .. 1  : 0

    min 0.7698 for triangle 0
    max 0.7698 for triangle 0

Edges:
    min 1 for edge 1 points (0 0 0)(0 0 1)
    max 1.41421 for edge 0 points (0 1 1)(0 0 0)

Checking for points less than 1e-6 of bounding box ((1 1 1) metre) apart.
Found 0 nearby points.

Surface is closed. All edges connected to two faces.

Number of unconnected parts : 1

Number of zones (connected area with consistent normal) : 1


End

