/*---------------------------------------------------------------------------*\
  =========                 |
  \\      /  F ield         | OpenFOAM: The Open Source CFD Toolbox
   \\    /   O peration     | Website:  https://openfoam.org
    \\  /    A nd           | Version:  10
     \\/     M anipulation  |
\*---------------------------------------------------------------------------*/
Build  : 10-c4cf895ad8fa
Exec   : icoFoam
Date   : Jul 10 2026
Time   : 17:40:46
Host   : "e89b818dc477"
PID    : 515
I/O    : uncollated
Case   : /home/openfoam/Foam-Agent/runs/lid_driven_cavity_mcp_test
nProcs : 1
sigFpe : Enabling floating point exception trapping (FOAM_SIGFPE).
fileModificationChecking : Monitoring run-time modified files using timeStampMaster (fileModificationSkew 10)
allowSystemOperations : Allowing user-supplied system call operations

// * * * * * * * * * * * * * * * * * * * * * * * * * * * * * * * * * * * * * //
Create time

Create mesh for time = 0

Reading physicalProperties

Reading field p

Reading field U

Reading/calculating face flux field phi


Starting time loop

Time = 0.005s

Courant Number mean: 0 max: 0
smoothSolver:  Solving for Ux, Initial residual = 1, Final residual = 8.90511e-06, No Iterations 19
smoothSolver:  Solving for Uy, Initial residual = 0, Final residual = 0, No Iterations 0
DICPCG:  Solving for p, Initial residual = 1, Final residual = 0.0492854, No Iterations 12
time step continuity errors : sum local = 0.000466513, global = -1.79995e-19, cumulative = -1.79995e-19
DICPCG:  Solving for p, Initial residual = 0.590864, Final residual = 2.65225e-07, No Iterations 35
time step continuity errors : sum local = 2.74685e-09, global = -2.6445e-19, cumulative = -4.44444e-19
ExecutionTime = 0.021888 s  ClockTime = 1 s

Time = 0.01s

Courant Number mean: 45.8817 max: 1250.73
smoothSolver:  Solving for Ux, Initial residual = 2.51004e+08, Final residual = 9.23117e+07, No Iterations 1000
smoothSolver:  Solving for Uy, Initial residual = 4.36664e+08, Final residual = 1.87332e+08, No Iterations 1000
DICPCG:  Solving for p, Initial residual = 1, Final residual = 89.2314, No Iterations 1001
time step continuity errors : sum local = 8123.44, global = -0.00514312, cumulative = -0.00514312
ExecutionTime = 0.194 s  ClockTime = 1 s
